IEEE_123_FLISR_Case/Line.DSS
New "Line.l115" bus1=149 bus2=1 linecode=1 Seasons=1 Ratings=[400,] normamps=0.1 emergamps=20 length=0.4 units=kft
New "Line.l1" phases=1 bus1=1.2 bus2=2.2 linecode=10 Seasons=1 Ratings=[400,] normamps=0.1 emergamps=20 length=0.175 units=kft
New "Line.l2" phases=1 bus1=1.3 bus2=3.3 linecode=11 Seasons=1 Ratings=[400,] normamps=0.1 emergamps=20 length=0.25 units=kft
New "Line.l3" phases=3 bus1=1.1.2.3 bus2=7.1.2.3 linecode=1 Seasons=1 Ratings=[400,] normamps=0.1 emergamps=20 length=0.3 units=kft
New "Line.l4" phases=1 bus1=3.3 bus2=4.3 linecode=11 Seasons=1 Ratings=[400,] normamps=0.1 emergamps=20 length=0.2 units=kft
New "Line.l5" phases=1 bus1=3.3 bus2=5.3 linecode=11 Seasons=1 Ratings=[400,] normamps=0.1 emergamps=20 length=0.325 units=kft
New "Line.l6" phases=1 bus1=5.3 bus2=6.3 linecode=11 Seasons=1 Ratings=[400,] normamps=0.1 emergamps=20 length=0.25 units=kft
New "Line.l7" phases=3 bus1=7.1.2.3 bus2=8.1.2.3 linecode=1 Seasons=1 Ratings=[400,] normamps=0.1 emergamps=20 length=0.2 units=kft
New "Line.l8" phases=1 bus1=8.2 bus2=12.2 linecode=10 Seasons=1 Ratings=[400,] normamps=0.1 emergamps=20 length=0.225 units=kft
New "Line.l9" phases=1 bus1=8.1 bus2=9.1 linecode=9 Seasons=1 Ratings=[400,] normamps=0.1 emergamps=20 length=0.225 units=kft
New "Line.l10" phases=3 bus1=8.1.2.3 bus2=13.1.2.3 linecode=1 Seasons=1 Ratings=[400,] normamps=0.1 emergamps=20 length=0.3 units=kft
New "Line.l11" phases=1 bus1=9r.1 bus2=14.1 linecode=9 Seasons=1 Ratings=[400,] normamps=0.1 emergamps=20 length=0.425 units=kft
New "Line.l12" phases=1 bus1=13.3 bus2=34.3 linecode=11 Seasons=1 Ratings=[400,] normamps=0.1 emergamps=20 length=0.15 units=kft
New "Line.l13" phases=3 bus1=13.1.2.3 bus2=18.1.2.3 linecode=2 Seasons=1 Ratings=[400,] normamps=0.1 emergamps=20 length=0.825 units=kft
New "Line.l14" phases=1 bus1=14.1 bus2=11.1 linecode=9 Seasons=1 Ratings=[400,] normamps=0.1 emergamps=20 length=0.25 units=kft
New "Line.l15" phases=1 bus1=14.1 bus2=10.1 linecode=9 Seasons=1 Ratings=[400,] normamps=0.1 emergamps=20 length=0.25 units=kft
New "Line.l16" phases=1 bus1=15.3 bus2=16.3 linecode=11 Seasons=1 Ratings=[400,] normamps=0.1 emergamps=20 length=0.375 units=kft
New "Line.l17" phases=1 bus1=15.3 bus2=17.3 linecode=11 Seasons=1 Ratings=[400,] normamps=0.1 emergamps=20 length=0.35 units=kft
New "Line.l18" phases=1 bus1=18.1 bus2=19.1 linecode=9 Seasons=1 Ratings=[400,] normamps=0.1 emergamps=20 length=0.25 units=kft
New "Line.l19" phases=3 bus1=18.1.2.3 bus2=21.1.2.3 linecode=2 Seasons=1 Ratings=[400,] normamps=0.1 emergamps=20 length=0.3 units=kft
New "Line.l20" phases=1 bus1=19.1 bus2=20.1 linecode=9 Seasons=1 Ratings=[400,] normamps=0.1 emergamps=20 length=0.325 units=kft
New "Line.l21" phases=1 bus1=21.2 bus2=22.2 linecode=10 Seasons=1 Ratings=[400,] normamps=0.1 emergamps=20 length=0.525 units=kft
New "Line.l22" phases=3 bus1=21.1.2.3 bus2=n21.1.2.3 linecode=2 Seasons=1 Ratings=[400,] normamps=0.1 emergamps=20 length=0.25 units=kft
New "Line.l23" phases=1 bus1=23.3 bus2=24.3 linecode=11 Seasons=1 Ratings=[400,] normamps=0.1 emergamps=20 length=0.55 units=kft
New "Line.l24" phases=3 bus1=23.1.2.3 bus2=25.1.2.3 linecode=2 Seasons=1 Ratings=[400,] normamps=0.1 emergamps=20 length=0.275 units=kft
New "Line.l25" phases=2 bus1=25r.1.3 bus2=26.1.3 linecode=7 Seasons=1 Ratings=[400,] normamps=0.1 emergamps=20 length=0.35 units=kft
New "Line.l26" phases=3 bus1=25.1.2.3 bus2=28.1.2.3 linecode=2 Seasons=1 Ratings=[400,] normamps=0.1 emergamps=20 length=0.2 units=kft
New "Line.l27" phases=2 bus1=26.1.3 bus2=27.1.3 linecode=7 Seasons=1 Ratings=[400,] normamps=0.1 emergamps=20 length=0.275 units=kft
New "Line.l28" phases=1 bus1=26.3 bus2=31.3 linecode=11 Seasons=1 Ratings=[400,] normamps=0.1 emergamps=20 length=0.225 units=kft
New "Line.l29" phases=1 bus1=27.1 bus2=33.1 linecode=9 Seasons=1 Ratings=[400,] normamps=0.1 emergamps=20 length=0.5 units=kft
New "Line.l30" phases=3 bus1=28.1.2.3 bus2=29.1.2.3 linecode=2 Seasons=1 Ratings=[400,] normamps=0.1 emergamps=20 length=0.3 units=kft
New "Line.l31" phases=3 bus1=29.1.2.3 bus2=30.1.2.3 linecode=2 Seasons=1 Ratings=[400,] normamps=0.1 emergamps=20 length=0.35 units=kft
New "Line.l32" phases=3 bus1=30.1.2.3 bus2=250.1.2.3 linecode=2 Seasons=1 Ratings=[400,] normamps=0.1 emergamps=20 length=0.2 units=kft
New "Line.l33" phases=1 bus1=31.3 bus2=32.3 linecode=11 Seasons=1 Ratings=[400,] normamps=0.1 emergamps=20 length=0.3 units=kft
New "Line.l34" phases=1 bus1=34.3 bus2=15.3 linecode=11 Seasons=1 Ratings=[400,] normamps=0.1 emergamps=20 length=0.1 units=kft
New "Line.l35" phases=2 bus1=35.1.2 bus2=36.1.2 linecode=8 Seasons=1 Ratings=[400,] normamps=0.1 emergamps=20 length=0.65 units=kft
New "Line.l36" phases=3 bus1=35.1.2.3 bus2=40.1.2.3 linecode=1 Seasons=1 Ratings=[400,] normamps=0.1 emergamps=20 length=0.25 units=kft
New "Line.l37" phases=1 bus1=36.1 bus2=37.1 linecode=9 Seasons=1 Ratings=[400,] normamps=0.1 emergamps=20 length=0.3 units=kft
New "Line.l38" phases=1 bus1=36.2 bus2=38.2 linecode=10 Seasons=1 Ratings=[400,] normamps=0.1 emergamps=20 length=0.25 units=kft
New "Line.l39" phases=1 bus1=38.2 bus2=39.2 linecode=10 Seasons=1 Ratings=[400,] normamps=0.1 emergamps=20 length=0.325 units=kft
New "Line.l40" phases=1 bus1=40.3 bus2=41.3 linecode=11 Seasons=1 Ratings=[400,] normamps=0.1 emergamps=20 length=0.325 units=kft
New "Line.l41" phases=3 bus1=40.1.2.3 bus2=42.1.2.3 linecode=1 Seasons=1 Ratings=[400,] normamps=0.1 emergamps=20 length=0.25 units=kft
New "Line.l42" phases=1 bus1=42.2 bus2=43.2 linecode=10 Seasons=1 Ratings=[400,] normamps=0.1 emergamps=20 length=0.5 units=kft
New "Line.l43" phases=3 bus1=42.1.2.3 bus2=44.1.2.3 linecode=1 Seasons=1 Ratings=[400,] normamps=0.1 emergamps=20 length=0.2 units=kft
New "Line.l44" phases=1 bus1=44.1 bus2=45.1 linecode=9 Seasons=1 Ratings=[400,] normamps=0.1 emergamps=20 length=0.2 units=kft
New "Line.l45" phases=3 bus1=44.1.2.3 bus2=47.1.2.3 linecode=1 Seasons=1 Ratings=[400,] normamps=0.1 emergamps=20 length=0.25 units=kft
New "Line.l46" phases=1 bus1=45.1 bus2=46.1 linecode=9 Seasons=1 Ratings=[400,] normamps=0.1 emergamps=20 length=0.3 units=kft
New "Line.l47" phases=3 bus1=47.1.2.3 bus2=48.1.2.3 linecode=4 Seasons=1 Ratings=[400,] normamps=0.1 emergamps=20 length=0.15 units=kft
New "Line.l48" phases=3 bus1=47.1.2.3 bus2=49.1.2.3 linecode=4 Seasons=1 Ratings=[400,] normamps=0.1 emergamps=20 length=0.25 units=kft
New "Line.l49" phases=3 bus1=49.1.2.3 bus2=50.1.2.3 linecode=4 Seasons=1 Ratings=[400,] normamps=0.1 emergamps=20 length=0.25 units=kft
New "Line.l50" phases=3 bus1=50.1.2.3 bus2=51.1.2.3 linecode=4 Seasons=1 Ratings=[400,] normamps=0.1 emergamps=20 length=0.25 units=kft
New "Line.l51" phases=3 bus1=51.1.2.3 bus2=151.1.2.3 linecode=4 Seasons=1 Ratings=[400,] normamps=0.1 emergamps=20 length=0.5 units=kft
New "Line.l52" phases=3 bus1=52.1.2.3 bus2=53.1.2.3 linecode=1 Seasons=1 Ratings=[400,] normamps=0.1 emergamps=20 length=0.2 units=kft
New "Line.l53" phases=3 bus1=53.1.2.3 bus2=54.1.2.3 linecode=1 Seasons=1 Ratings=[400,] normamps=0.1 emergamps=20 length=0.125 units=kft
New "Line.l54" phases=3 bus1=54.1.2.3 bus2=55.1.2.3 linecode=1 Seasons=1 Ratings=[400,] normamps=0.1 emergamps=20 length=0.275 units=kft
New "Line.l55" phases=3 bus1=54.1.2.3 bus2=57.1.2.3 linecode=3 Seasons=1 Ratings=[400,] normamps=0.1 emergamps=20 length=0.35 units=kft
New "Line.l56" phases=3 bus1=55.1.2.3 bus2=56.1.2.3 linecode=1 Seasons=1 Ratings=[400,] normamps=0.1 emergamps=20 length=0.275 units=kft
New "Line.l57" phases=1 bus1=57.2 bus2=58.2 linecode=10 Seasons=1 Ratings=[400,] normamps=0.1 emergamps=20 length=0.25 units=kft
New "Line.l58" phases=3 bus1=57.1.2.3 bus2=60.1.2.3 linecode=3 Seasons=1 Ratings=[400,] normamps=0.1 emergamps=20 length=0.75 units=kft
New "Line.l59" phases=1 bus1=58.2 bus2=59.2 linecode=10 Seasons=1 Ratings=[400,] normamps=0.1 emergamps=20 length=0.25 units=kft
New "Line.l60" phases=3 bus1=60.1.2.3 bus2=61.1.2.3 linecode=5 Seasons=1 Ratings=[400,] normamps=0.1 emergamps=20 length=0.55 units=kft
New "Line.l61" phases=3 bus1=60.1.2.3 bus2=62.1.2.3 linecode=12 Seasons=1 Ratings=[400,] normamps=0.1 emergamps=20 length=0.25 units=kft
New "Line.l62" phases=3 bus1=62.1.2.3 bus2=63.1.2.3 linecode=12 Seasons=1 Ratings=[400,] normamps=0.1 emergamps=20 length=0.175 units=kft
New "Line.l63" phases=3 bus1=63.1.2.3 bus2=64.1.2.3 linecode=12 Seasons=1 Ratings=[400,] normamps=0.1 emergamps=20 length=0.35 units=kft
New "Line.l64" phases=3 bus1=64.1.2.3 bus2=65.1.2.3 linecode=12 Seasons=1 Ratings=[400,] normamps=0.1 emergamps=20 length=0.425 units=kft
New "Line.l65" phases=3 bus1=65.1.2.3 bus2=66.1.2.3 linecode=12 Seasons=1 Ratings=[400,] normamps=0.1 emergamps=20 length=0.325 units=kft
New "Line.l66" phases=1 bus1=67.1 bus2=68.1 linecode=9 Seasons=1 Ratings=[400,] normamps=0.1 emergamps=20 length=0.2 units=kft
New "Line.l67" phases=3 bus1=67.1.2.3 bus2=72.1.2.3 linecode=3 Seasons=1 Ratings=[400,] normamps=0.1 emergamps=20 length=0.275 units=kft
New "Line.l68" phases=3 bus1=67.1.2.3 bus2=97.1.2.3 linecode=3 Seasons=1 Ratings=[400,] normamps=0.1 emergamps=20 length=0.25 units=kft
New "Line.l69" phases=1 bus1=68.1 bus2=69.1 linecode=9 Seasons=1 Ratings=[400,] normamps=0.1 emergamps=20 length=0.275 units=kft
New "Line.l70" phases=1 bus1=69.1 bus2=70.1 linecode=9 Seasons=1 Ratings=[400,] normamps=0.1 emergamps=20 length=0.325 units=kft
New "Line.l71" phases=1 bus1=70.1 bus2=71.1 linecode=9 Seasons=1 Ratings=[400,] normamps=0.1 emergamps=20 length=0.275 units=kft
New "Line.l72" phases=1 bus1=72.3 bus2=73.3 linecode=11 Seasons=1 Ratings=[400,] normamps=0.1 emergamps=20 length=0.275 units=kft
New "Line.l73" phases=3 bus1=72.1.2.3 bus2=76.1.2.3 linecode=3 Seasons=1 Ratings=[400,] normamps=0.1 emergamps=20 length=0.2 units=kft
New "Line.l74" phases=1 bus1=73.3 bus2=74.3 linecode=11 Seasons=1 Ratings=[400,] normamps=0.1 emergamps=20 length=0.35 units=kft
New "Line.l75" phases=1 bus1=74.3 bus2=75.3 linecode=11 Seasons=1 Ratings=[400,] normamps=0.1 emergamps=20 length=0.4 units=kft
New "Line.l76" phases=3 bus1=76.1.2.3 bus2=77.1.2.3 linecode=6 Seasons=1 Ratings=[400,] normamps=0.1 emergamps=20 length=0.4 units=kft
New "Line.l77" phases=3 bus2=86.1.2.3 linecode=3 Seasons=1 Ratings=[400,] normamps=0.1 emergamps=20 length=0.7 units=kft bus1=n86.1.2.3
New "Line.l78" phases=3 bus1=77.1.2.3 bus2=78.1.2.3 linecode=6 Seasons=1 Ratings=[400,] normamps=0.1 emergamps=20 length=0.1 units=kft
New "Line.l79" phases=3 bus1=78.1.2.3 bus2=79.1.2.3 linecode=6 Seasons=1 Ratings=[400,] normamps=0.1 emergamps=20 length=0.225 units=kft
New "Line.l80" phases=3 bus1=78.1.2.3 bus2=80.1.2.3 linecode=6 Seasons=1 Ratings=[400,] normamps=0.1 emergamps=20 length=0.475 units=kft
New "Line.l81" phases=3 bus1=80.1.2.3 bus2=81.1.2.3 linecode=6 Seasons=1 Ratings=[400,] normamps=0.1 emergamps=20 length=0.175 units=kft
New "Line.l82" phases=3 bus1=81.1.2.3 bus2=82.1.2.3 linecode=6 Seasons=1 Ratings=[400,] normamps=0.1 emergamps=20 length=0.25 units=kft
New "Line.l83" phases=1 bus1=81.3 bus2=84.3 linecode=11 Seasons=1 Ratings=[400,] normamps=0.1 emergamps=20 length=0.675 units=kft
New "Line.l84" phases=3 bus1=82.1.2.3 bus2=83.1.2.3 linecode=6 Seasons=1 Ratings=[400,] normamps=0.1 emergamps=20 length=0.25 units=kft
New "Line.l85" phases=1 bus1=84.3 bus2=85.3 linecode=11 Seasons=1 Ratings=[400,] normamps=0.1 emergamps=20 length=0.475 units=kft
New "Line.l86" phases=3 bus1=86.1.2.3 bus2=87.1.2.3 linecode=6 Seasons=1 Ratings=[400,] normamps=0.1 emergamps=20 length=0.45 units=kft
New "Line.l87" phases=1 bus1=87.1 bus2=88.1 linecode=9 Seasons=1 Ratings=[400,] normamps=0.1 emergamps=20 length=0.175 units=kft
New "Line.l88" phases=3 bus1=87.1.2.3 bus2=89.1.2.3 linecode=6 Seasons=1 Ratings=[400,] normamps=0.1 emergamps=20 length=0.275 units=kft
New "Line.l89" phases=1 bus1=89.2 bus2=90.2 linecode=10 Seasons=1 Ratings=[400,] normamps=0.1 emergamps=20 length=0.25 units=kft
New "Line.l90" phases=3 bus1=89.1.2.3 bus2=91.1.2.3 linecode=6 Seasons=1 Ratings=[400,] normamps=0.1 emergamps=20 length=0.225 units=kft
New "Line.l91" phases=1 bus1=91.3 bus2=92.3 linecode=11 Seasons=1 Ratings=[400,] normamps=0.1 emergamps=20 length=0.3 units=kft
New "Line.l92" phases=3 bus1=91.1.2.3 bus2=93.1.2.3 linecode=6 Seasons=1 Ratings=[400,] normamps=0.1 emergamps=20 length=0.225 units=kft
New "Line.l93" phases=1 bus1=93.1 bus2=94.1 linecode=9 Seasons=1 Ratings=[400,] normamps=0.1 emergamps=20 length=0.275 units=kft
New "Line.l94" phases=3 bus1=93.1.2.3 bus2=95.1.2.3 linecode=6 Seasons=1 Ratings=[400,] normamps=0.1 emergamps=20 length=0.3 units=kft
New "Line.l95" phases=1 bus1=95.2 bus2=96.2 linecode=10 Seasons=1 Ratings=[400,] normamps=0.1 emergamps=20 length=0.2 units=kft
New "Line.l96" phases=3 bus1=97.1.2.3 bus2=98.1.2.3 linecode=3 Seasons=1 Ratings=[400,] normamps=0.1 emergamps=20 length=0.275 units=kft
New "Line.l97" phases=3 bus1=98.1.2.3 bus2=99.1.2.3 linecode=3 Seasons=1 Ratings=[400,] normamps=0.1 emergamps=20 length=0.55 units=kft
New "Line.l98" phases=3 bus1=99.1.2.3 bus2=100.1.2.3 linecode=3 Seasons=1 Ratings=[400,] normamps=0.1 emergamps=20 length=0.3 units=kft
New "Line.l118" phases=3 bus1=197.1.2.3 bus2=101.1.2.3 linecode=3 Seasons=1 Ratings=[400,] normamps=0.1 emergamps=20 length=0.25 units=kft
New "Line.l100" phases=1 bus1=101.3 bus2=102.3 linecode=11 Seasons=1 Ratings=[400,] normamps=0.1 emergamps=20 length=0.225 units=kft
New "Line.l101" phases=3 bus1=101.1.2.3 bus2=105.1.2.3 linecode=3 Seasons=1 Ratings=[400,] normamps=0.1 emergamps=20 length=0.275 units=kft
New "Line.l102" phases=1 bus1=102.3 bus2=103.3 linecode=11 Seasons=1 Ratings=[400,] normamps=0.1 emergamps=20 length=0.325 units=kft
New "Line.l103" phases=1 bus1=103.3 bus2=104.3 linecode=11 Seasons=1 Ratings=[400,] normamps=0.1 emergamps=20 length=0.7 units=kft
New "Line.l104" phases=1 bus1=105.2 bus2=106.2 linecode=10 Seasons=1 Ratings=[400,] normamps=0.1 emergamps=20 length=0.225 units=kft
New "Line.l105" phases=3 bus1=105.1.2.3 bus2=108.1.2.3 linecode=3 Seasons=1 Ratings=[400,] normamps=0.1 emergamps=20 length=0.325 units=kft
New "Line.l106" phases=1 bus1=106.2 bus2=107.2 linecode=10 Seasons=1 Ratings=[400,] normamps=0.1 emergamps=20 length=0.575 units=kft
New "Line.l107" phases=1 bus1=108.1 bus2=109.1 linecode=9 Seasons=1 Ratings=[400,] normamps=0.1 emergamps=20 length=0.45 units=kft
New "Line.l108" phases=3 bus1=108.1.2.3 bus2=300.1.2.3 linecode=3 Seasons=1 Ratings=[400,] normamps=0.1 emergamps=20 length=1 units=kft
New "Line.l109" phases=1 bus1=109.1 bus2=110.1 linecode=9 Seasons=1 Ratings=[400,] normamps=0.1 emergamps=20 length=0.3 units=kft
New "Line.l110" phases=1 bus1=110.1 bus2=111.1 linecode=9 Seasons=1 Ratings=[400,] normamps=0.1 emergamps=20 length=0.575 units=kft
New "Line.l111" phases=1 bus1=110.1 bus2=112.1 linecode=9 Seasons=1 Ratings=[400,] normamps=0.1 emergamps=20 length=0.125 units=kft
New "Line.l112" phases=1 bus1=112.1 bus2=113.1 linecode=9 Seasons=1 Ratings=[400,] normamps=0.1 emergamps=20 length=0.525 units=kft
New "Line.l113" phases=1 bus1=113.1 bus2=114.1 linecode=9 Seasons=1 Ratings=[400,] normamps=0.1 emergamps=20 length=0.325 units=kft
New "Line.l114" phases=3 bus1=135.1.2.3 bus2=35.1.2.3 linecode=4 Seasons=1 Ratings=[400,] normamps=0.1 emergamps=20 length=0.375 units=kft
New "Line.l116" phases=3 bus1=152.1.2.3 bus2=52.1.2.3 linecode=1 Seasons=1 Ratings=[400,] normamps=0.1 emergamps=20 length=0.4 units=kft
New "Line.l117" phases=3 bus1=160r.1.2.3 bus2=67.1.2.3 linecode=6 Seasons=1 Ratings=[400,] normamps=0.1 emergamps=20 length=0.35 units=kft
New "Line.sw1" phases=3 bus1=150r bus2=149 Switch=True r1=0.001 r0=0.001 x1=0 x0=0 C1=0 C0=0 length=0.001
New "Line.sw2" phases=3 bus1=13 bus2=152 Switch=True r1=0.001 r0=0.001 x1=0 x0=0 C1=0 C0=0 length=0.001
New "Line.sw3" phases=3 bus1=18 bus2=135 Switch=True r1=0.001 r0=0.001 x1=0 x0=0 C1=0 C0=0 length=0.001
New "Line.sw4" phases=3 bus1=60 bus2=160 Switch=True r1=0.001 r0=0.001 x1=0 x0=0 C1=0 C0=0 length=0.001
New "Line.sw5" phases=3 bus1=97 bus2=197 Switch=True r1=0.001 r0=0.001 x1=0 x0=0 C1=0 C0=0 length=0.001
New "Line.sw8" r1=1 r0=1 x1=1 x0=1 C1=1.1 C0=1 length=0.001 phases=3 bus1=n21.1.2.3 bus2=23.1.2.3 Switch=True
New "Line.rcl_3" phases=3 bus1=83.1.2.3 bus2=sup_3.1.2.3 Switch=True
New "Line.rcl_4" phases=3 bus1=sup_2.1.2.3 bus2=66.1.2.3 Switch=True
New "Line.rcl_5" phases=3 bus1=sup_1.1.2.3 bus2=48.1.2.3 Switch=True
New "Line.sw9" phases=3 bus1=151.1.2.3 bus2=250.1.2.3 Switch=True
New "Line.sw10" phases=3 bus1=64.1.2.3 bus2=300.1.2.3 Switch=True
New "Line.sw11" phases=3 bus1=76.1.2.3 bus2=n86.1.2.3 Switch=True
