IEEE_123_FLISR_Case/ieee123_VLN_Node.Txt

LINE-GROUND and LINE-LINE VOLTAGES BY BUS & NODE

Bus   Node    VLN (kV)   Angle      pu     Base kV    Node-Node   VLL (kV)  Angle      pu

150 . 1       2.4018 /_    0.0         1     4.160        1-2       4.16 /_   30.0         1
   -  2       2.4018 /_ -120.0         1     4.160        2-3       4.16 /_  -90.0         1
   -  3       2.4018 /_  120.0         1     4.160        3-1       4.16 /_  150.0         1
SUP_2 1       2.4012 /_    0.0   0.99974     4.160        1-2      4.159 /_   30.0   0.99976
   -  2       2.4013 /_ -120.0    0.9998     4.160        2-3     4.1592 /_  -90.0   0.99981
   -  3       2.4013 /_  120.0   0.99982     4.160        3-1     4.1591 /_  150.0   0.99979
SUP_1 1        2.401 /_    0.0   0.99967     4.160        1-2     4.1585 /_   30.0   0.99964
   -  2       2.4009 /_ -120.0   0.99963     4.160        2-3     4.1586 /_  -90.0   0.99967
   -  3       2.4012 /_  120.0   0.99974     4.160        3-1     4.1589 /_  150.0   0.99974
SUP_3 1       2.4011 /_    0.0   0.99972     4.160        1-2     4.1589 /_   30.0   0.99973
   -  2       2.4014 /_ -120.0   0.99983     4.160        2-3     4.1594 /_  -90.0   0.99986
   -  3       2.4014 /_  120.0   0.99985     4.160        3-1     4.1593 /_  150.0   0.99982
149 . 1       2.4168 /_    0.0    1.0062     4.160        1-2      4.186 /_   30.0    1.0062
   -  2       2.4168 /_ -120.0    1.0062     4.160        2-3      4.186 /_  -90.0    1.0062
   -  3       2.4168 /_  120.0    1.0062     4.160        3-1      4.186 /_  150.0    1.0062
1 ... 1       2.4094 /_   -0.2    1.0032     4.160        1-2     4.1766 /_   30.0     1.004
   -  2       2.4196 /_ -120.0    1.0074     4.160        2-3     4.1823 /_  -90.1    1.0054
   -  3       2.4069 /_  119.9    1.0021     4.160        3-1      4.174 /_  149.9    1.0034
2 ... 2       2.4191 /_ -120.0    1.0072     4.160
3 ... 3       2.4029 /_  119.9    1.0005     4.160
7 ... 1       2.4038 /_   -0.4    1.0009     4.160        1-2     4.1705 /_   30.0    1.0025
   -  2       2.4219 /_ -120.0    1.0084     4.160        2-3     4.1805 /_  -90.2    1.0049
   -  3       2.4017 /_  119.9   0.99996     4.160        3-1     4.1673 /_  149.8    1.0017
4 ... 3       2.4017 /_  119.9   0.99996     4.160
5 ... 3       2.3999 /_  119.9    0.9992     4.160
6 ... 3       2.3983 /_  119.8   0.99854     4.160
8 ... 1       2.4004 /_   -0.5   0.99945     4.160        1-2     4.1666 /_   29.9    1.0016
   -  2       2.4233 /_ -120.0     1.009     4.160        2-3     4.1793 /_  -90.2    1.0046
   -  3       2.3982 /_  119.9   0.99853     4.160        3-1     4.1629 /_  149.7    1.0007
12 .. 2       2.4226 /_ -120.0    1.0087     4.160
9 ... 1       2.3969 /_   -0.5   0.99796     4.160
13 .. 1       2.3978 /_   -0.6   0.99836     4.160        1-2     4.1627 /_   29.9    1.0006
   -  2       2.4245 /_ -119.9    1.0094     4.160        2-3     4.1776 /_  -90.3    1.0042
   -  3       2.3931 /_  119.8   0.99638     4.160        3-1      4.157 /_  149.7   0.99929
9R .. 1       2.4118 /_   -0.5    1.0042     4.160
14 .. 1       2.4078 /_   -0.5    1.0025     4.160
34 .. 3       2.3907 /_  119.8   0.99539     4.160
18 .. 1       2.3891 /_   -0.8   0.99471     4.160        1-2     4.1527 /_   29.9   0.99825
   -  2       2.4274 /_ -119.9    1.0107     4.160        2-3     4.1721 /_  -90.4    1.0029
   -  3       2.3843 /_  119.8   0.99273     4.160        3-1     4.1471 /_  149.5    0.9969
11 .. 1       2.4062 /_   -0.5    1.0019     4.160
10 .. 1        2.407 /_   -0.5    1.0022     4.160
15 .. 3       2.3897 /_  119.8   0.99499     4.160
16 .. 3       2.3874 /_  119.8     0.994     4.160
17 .. 3       2.3886 /_  119.8   0.99453     4.160
19 .. 1       2.3859 /_   -0.8   0.99339     4.160
21 .. 1       2.3878 /_   -0.9   0.99417     4.160        1-2     4.1506 /_   29.9   0.99773
   -  2       2.4275 /_ -119.9    1.0107     4.160        2-3     4.1702 /_  -90.4    1.0025
   -  3       2.3814 /_  119.8   0.99153     4.160        3-1     4.1441 /_  149.5   0.99618
20 .. 1       2.3839 /_   -0.9   0.99254     4.160
22 .. 2       2.4242 /_ -120.0    1.0093     4.160
N21 . 1       2.3868 /_   -0.9   0.99376     4.160        1-2      4.149 /_   29.9   0.99736
   -  2       2.4285 /_ -119.9    1.0111     4.160        2-3     4.1694 /_  -90.4    1.0022
   -  3       2.3787 /_  119.8   0.99039     4.160        3-1     4.1416 /_  149.5   0.99559
23 .. 1       2.3867 /_   -0.9   0.99373     4.160        1-2     4.1489 /_   29.9   0.99734
   -  2       2.4285 /_ -119.9    1.0111     4.160        2-3     4.1693 /_  -90.4    1.0022
   -  3       2.3786 /_  119.8   0.99035     4.160        3-1     4.1415 /_  149.5   0.99555
24 .. 3       2.3751 /_  119.7   0.98889     4.160
25 .. 1       2.3851 /_   -1.0   0.99308     4.160        1-2     4.1471 /_   29.9   0.99691
   -  2       2.4296 /_ -119.9    1.0116     4.160        2-3     4.1686 /_  -90.4    1.0021
   -  3       2.3765 /_  119.8   0.98946     4.160        3-1     4.1394 /_  149.5   0.99505
25R . 1       2.4001 /_   -1.0   0.99928     4.160
   -  3       2.4062 /_  119.8    1.0018     4.160        3-1     4.1782 /_  149.4    1.0044
26 .. 1       2.3994 /_   -1.0   0.99903     4.160
   -  3        2.405 /_  119.8    1.0013     4.160        3-1      4.177 /_  149.3    1.0041
28 .. 1       2.3843 /_   -1.0   0.99271     4.160        1-2     4.1462 /_   29.9   0.99669
   -  2       2.4301 /_ -119.9    1.0118     4.160        2-3     4.1683 /_  -90.4     1.002
   -  3       2.3756 /_  119.8   0.98911     4.160        3-1     4.1386 /_  149.4   0.99484
27 .. 1       2.3986 /_   -1.0   0.99867     4.160
   -  3       2.4049 /_  119.8    1.0013     4.160        3-1     4.1767 /_  149.3     1.004
31 .. 3       2.4035 /_  119.8    1.0007     4.160
33 .. 1       2.3954 /_   -1.1   0.99735     4.160
29 .. 1       2.3839 /_   -1.0   0.99255     4.160        1-2     4.1456 /_   29.9   0.99654
   -  2       2.4305 /_ -119.9    1.0119     4.160        2-3      4.168 /_  -90.5    1.0019
   -  3       2.3745 /_  119.8   0.98865     4.160        3-1     4.1376 /_  149.4   0.99461
30 .. 1       2.3845 /_   -1.0   0.99282     4.160        1-2     4.1457 /_   29.9   0.99657
   -  2       2.4304 /_ -119.9    1.0119     4.160        2-3     4.1676 /_  -90.5    1.0018
   -  3       2.3734 /_  119.8   0.98819     4.160        3-1     4.1368 /_  149.4   0.99441
250 . 1       2.3845 /_   -1.0   0.99282     4.160        1-2     4.1457 /_   29.9   0.99657
   -  2       2.4304 /_ -119.9    1.0119     4.160        2-3     4.1676 /_  -90.5    1.0018
   -  3       2.3734 /_  119.8   0.98819     4.160        3-1     4.1368 /_  149.4   0.99441
32 .. 3       2.4026 /_  119.7    1.0003     4.160
35 .. 1       2.3936 /_   -0.1   0.99659     4.160        1-2     4.1483 /_   29.9   0.99718
   -  2       2.3958 /_ -120.1   0.99749     4.160        2-3     4.1518 /_  -90.0   0.99804
   -  3       2.4012 /_  120.0   0.99976     4.160        3-1     4.1543 /_  149.9   0.99863
36 .. 1       2.3914 /_   -0.1   0.99567     4.160        1-2     4.1459 /_   29.9   0.99662
   -  2       2.3946 /_ -120.2   0.99702     4.160
40 .. 1       2.3946 /_   -0.1   0.99703     4.160        1-2     4.1496 /_   29.9    0.9975
   -  2       2.3964 /_ -120.1   0.99777     4.160        2-3     4.1526 /_  -90.0   0.99823
   -  3       2.4009 /_  120.0   0.99963     4.160        3-1     4.1546 /_  149.9   0.99869
37 .. 1       2.3895 /_   -0.1   0.99488     4.160
38 .. 2        2.393 /_ -120.2   0.99636     4.160
39 .. 2        2.392 /_ -120.2   0.99593     4.160
41 .. 3       2.3999 /_  120.0    0.9992     4.160
42 .. 1       2.3955 /_   -0.1   0.99739     4.160        1-2      4.151 /_   29.9   0.99783
   -  2       2.3971 /_ -120.1   0.99806     4.160        2-3     4.1535 /_  -90.0   0.99845
   -  3       2.4009 /_  120.0   0.99965     4.160        3-1     4.1551 /_  149.9   0.99883
43 .. 2        2.394 /_ -120.1   0.99674     4.160
44 .. 1       2.3966 /_   -0.1   0.99786     4.160        1-2     4.1525 /_   29.9   0.99819
   -  2       2.3981 /_ -120.1   0.99848     4.160        2-3     4.1547 /_  -90.0   0.99873
   -  3       2.4007 /_  120.0   0.99956     4.160        3-1     4.1557 /_  149.9   0.99898
45 .. 1       2.3954 /_   -0.1   0.99733     4.160
47 .. 1       2.3988 /_    0.0   0.99877     4.160        1-2      4.155 /_   30.0   0.99879
   -  2       2.3989 /_ -120.0   0.99881     4.160        2-3     4.1561 /_  -90.0   0.99906
   -  3       2.4005 /_  120.0   0.99948     4.160        3-1     4.1567 /_  149.9   0.99921
46 .. 1       2.3944 /_   -0.1   0.99694     4.160
48 .. 1       2.4008 /_    0.0   0.99959     4.160        1-2     4.1582 /_   30.0   0.99956
   -  2       2.4007 /_ -120.0   0.99955     4.160        2-3     4.1583 /_  -90.0    0.9996
   -  3        2.401 /_  120.0   0.99969     4.160        3-1     4.1586 /_  150.0   0.99967
49 .. 1       2.3982 /_   -0.1    0.9985     4.160        1-2     4.1532 /_   29.9   0.99838
   -  2       2.3976 /_ -120.1   0.99824     4.160        2-3     4.1546 /_  -90.0    0.9987
   -  3       2.3998 /_  119.9   0.99916     4.160        3-1     4.1551 /_  149.9   0.99883
50 .. 1       2.3981 /_   -0.1   0.99849     4.160        1-2     4.1528 /_   29.9   0.99828
   -  2       2.3976 /_ -120.0   0.99827     4.160        2-3     4.1544 /_  -90.0   0.99865
   -  3       2.3989 /_  119.9   0.99882     4.160        3-1     4.1544 /_  149.9   0.99865
51 .. 1       2.3977 /_   -0.1   0.99832     4.160        1-2     4.1525 /_   29.9    0.9982
   -  2       2.3978 /_ -120.0   0.99835     4.160        2-3     4.1544 /_  -90.0   0.99865
   -  3       2.3989 /_  119.9    0.9988     4.160        3-1     4.1543 /_  149.9   0.99862
151 . 1       2.3977 /_   -0.1   0.99832     4.160        1-2     4.1525 /_   29.9    0.9982
   -  2       2.3978 /_ -120.0   0.99835     4.160        2-3     4.1544 /_  -90.0   0.99865
   -  3       2.3989 /_  119.9    0.9988     4.160        3-1     4.1543 /_  149.9   0.99862
52 .. 1        2.359 /_    0.0   0.98219     4.160        1-2     4.1147 /_   30.0   0.98912
   -  2       2.3861 /_ -120.3   0.99347     4.160        2-3     4.1379 /_  -90.0   0.99468
   -  3       2.4029 /_  120.2    1.0005     4.160        3-1     4.1281 /_  149.7   0.99232
53 .. 1       2.3596 /_    0.0   0.98246     4.160        1-2     4.1152 /_   30.0   0.98923
   -  2       2.3857 /_ -120.3   0.99332     4.160        2-3     4.1378 /_  -90.0   0.99467
   -  3        2.403 /_  120.1    1.0005     4.160        3-1     4.1282 /_  149.8   0.99237
54 .. 1       2.3604 /_    0.0   0.98279     4.160        1-2     4.1158 /_   30.0   0.98937
   -  2       2.3853 /_ -120.3   0.99313     4.160        2-3     4.1377 /_  -90.0   0.99464
   -  3        2.403 /_  120.1    1.0005     4.160        3-1     4.1285 /_  149.8   0.99242
55 .. 1         2.36 /_    0.0   0.98259     4.160        1-2     4.1153 /_   30.0   0.98927
   -  2       2.3851 /_ -120.3   0.99305     4.160        2-3     4.1374 /_  -90.0   0.99457
   -  3       2.4032 /_  120.1    1.0006     4.160        3-1     4.1283 /_  149.8   0.99238
57 .. 1       2.3633 /_    0.0   0.98397     4.160        1-2     4.1183 /_   30.0   0.98997
   -  2       2.3846 /_ -120.3   0.99285     4.160        2-3     4.1382 /_  -90.0   0.99476
   -  3        2.403 /_  120.1    1.0005     4.160        3-1     4.1292 /_  149.8    0.9926
56 .. 1       2.3599 /_    0.0   0.98256     4.160        1-2     4.1152 /_   30.0   0.98923
   -  2       2.3847 /_ -120.3   0.99287     4.160        2-3     4.1371 /_  -90.0   0.99449
   -  3       2.4034 /_  120.1    1.0007     4.160        3-1     4.1283 /_  149.8   0.99238
58 .. 2        2.383 /_ -120.3   0.99219     4.160
60 .. 1       2.3696 /_    0.1   0.98658     4.160        1-2     4.1243 /_   30.1   0.99141
   -  2       2.3855 /_ -120.2   0.99323     4.160        2-3      4.141 /_  -90.0   0.99544
   -  3       2.4017 /_  120.0   0.99996     4.160        3-1     4.1306 /_  149.9   0.99293
59 .. 2       2.3822 /_ -120.3   0.99186     4.160
61 .. 1       2.3696 /_    0.1   0.98658     4.160        1-2     4.1243 /_   30.1   0.99141
   -  2       2.3855 /_ -120.2   0.99323     4.160        2-3      4.141 /_  -90.0   0.99544
   -  3       2.4017 /_  120.0   0.99996     4.160        3-1     4.1306 /_  149.9   0.99293
62 .. 1       2.3737 /_    0.1   0.98832     4.160        1-2     4.1281 /_   30.1   0.99233
   -  2       2.3869 /_ -120.2   0.99382     4.160        2-3     4.1421 /_  -90.0    0.9957
   -  3       2.4005 /_  120.0   0.99946     4.160        3-1     4.1332 /_  149.9   0.99357
63 .. 1       2.3765 /_    0.1   0.98947     4.160        1-2     4.1308 /_   30.1   0.99299
   -  2       2.3878 /_ -120.1   0.99417     4.160        2-3     4.1435 /_  -90.0   0.99603
   -  3       2.4007 /_  120.0   0.99955     4.160        3-1     4.1357 /_  149.9   0.99416
64 .. 1       2.3841 /_    0.1   0.99265     4.160        1-2     4.1374 /_   30.0   0.99458
   -  2        2.389 /_ -120.1   0.99469     4.160        2-3     4.1462 /_  -90.0   0.99668
   -  3       2.4008 /_  120.0   0.99958     4.160        3-1     4.1419 /_  149.9   0.99566
65 .. 1       2.3926 /_    0.0    0.9962     4.160        1-2     4.1482 /_   30.0   0.99716
   -  2       2.3952 /_ -120.0   0.99728     4.160        2-3     4.1521 /_  -90.0    0.9981
   -  3          2.4 /_  120.0   0.99925     4.160        3-1     4.1495 /_  150.0   0.99747
66 .. 1        2.401 /_    0.0   0.99968     4.160        1-2     4.1588 /_   30.0   0.99971
   -  2       2.4012 /_ -120.0   0.99976     4.160        2-3      4.159 /_  -90.0   0.99977
   -  3       2.4012 /_  120.0   0.99977     4.160        3-1     4.1589 /_  150.0   0.99973
67 .. 1       2.3541 /_   -1.2   0.98014     4.160        1-2     4.0834 /_   29.2   0.98158
   -  2       2.3735 /_ -120.7   0.98823     4.160        2-3     4.0939 /_  -90.6   0.98411
   -  3       2.3613 /_  119.6   0.98315     4.160        3-1     4.1009 /_  149.1   0.98578
68 .. 1       2.3502 /_   -1.3   0.97852     4.160
72 .. 1       2.3594 /_   -1.1   0.98237     4.160        1-2     4.0898 /_   29.2   0.98314
   -  2       2.3738 /_ -120.7   0.98833     4.160        2-3      4.097 /_  -90.6   0.98485
   -  3       2.3635 /_  119.6   0.98408     4.160        3-1     4.1049 /_  149.2   0.98676
97 .. 1       2.3516 /_   -1.3   0.97911     4.160        1-2     4.0795 /_   29.1   0.98064
   -  2       2.3722 /_ -120.7    0.9877     4.160        2-3     4.0912 /_  -90.7   0.98345
   -  3       2.3595 /_  119.6   0.98241     4.160        3-1     4.0979 /_  149.1   0.98507
69 .. 1       2.3457 /_   -1.3   0.97667     4.160
70 .. 1       2.3426 /_   -1.3   0.97535     4.160
71 .. 1       2.3408 /_   -1.4   0.97461     4.160
73 .. 3       2.3583 /_  119.5    0.9819     4.160
76 .. 1       2.3624 /_   -1.0   0.98362     4.160        1-2     4.0947 /_   29.2    0.9843
   -  2       2.3743 /_ -120.7   0.98854     4.160        2-3     4.0998 /_  -90.6   0.98554
   -  3       2.3671 /_  119.6   0.98555     4.160        3-1     4.1094 /_  149.3   0.98783
74 .. 3       2.3539 /_  119.5   0.98005     4.160
75 .. 3       2.3513 /_  119.5   0.97898     4.160
77 .. 1       2.3708 /_   -0.8   0.98711     4.160        1-2     4.1088 /_   29.4    0.9877
   -  2       2.3797 /_ -120.6    0.9908     4.160        2-3     4.1127 /_  -90.5   0.98863
   -  3       2.3753 /_  119.7   0.98898     4.160        3-1     4.1207 /_  149.4   0.99054
N86 . 1       2.3624 /_   -1.0    0.9836     4.160        1-2     4.0946 /_   29.2   0.98429
   -  2       2.3742 /_ -120.7   0.98851     4.160        2-3     4.0998 /_  -90.6   0.98552
   -  3       2.3671 /_  119.6   0.98554     4.160        3-1     4.1093 /_  149.3   0.98782
86 .. 1       2.3601 /_   -1.1   0.98263     4.160        1-2     4.0917 /_   29.1   0.98357
   -  2       2.3697 /_ -120.9   0.98664     4.160        2-3     4.0959 /_  -90.6   0.98459
   -  3       2.3704 /_  119.6   0.98694     4.160        3-1     4.1102 /_  149.2   0.98802
78 .. 1       2.3729 /_   -0.7     0.988     4.160        1-2     4.1125 /_   29.4   0.98857
   -  2       2.3814 /_ -120.5    0.9915     4.160        2-3     4.1162 /_  -90.4   0.98947
   -  3       2.3772 /_  119.7   0.98978     4.160        3-1     4.1235 /_  149.5   0.99122
79 .. 1       2.3722 /_   -0.8    0.9877     4.160        1-2     4.1119 /_   29.4   0.98843
   -  2       2.3817 /_ -120.5   0.99163     4.160        2-3     4.1161 /_  -90.4   0.98945
   -  3       2.3771 /_  119.7   0.98973     4.160        3-1     4.1233 /_  149.4   0.99117
80 .. 1       2.3846 /_   -0.5   0.99284     4.160        1-2      4.131 /_   29.6   0.99302
   -  2       2.3887 /_ -120.3   0.99455     4.160        2-3     4.1329 /_  -90.3   0.99347
   -  3       2.3865 /_  119.8   0.99365     4.160        3-1     4.1373 /_  149.7   0.99454
81 .. 1       2.3889 /_   -0.4   0.99466     4.160        1-2      4.138 /_   29.7    0.9947
   -  2       2.3919 /_ -120.2   0.99591     4.160        2-3     4.1394 /_  -90.2   0.99506
   -  3       2.3897 /_  119.8   0.99497     4.160        3-1     4.1424 /_  149.7   0.99577
82 .. 1       2.3945 /_   -0.2   0.99697     4.160        1-2     4.1479 /_   29.8   0.99709
   -  2       2.3967 /_ -120.1    0.9979     4.160        2-3     4.1492 /_  -90.1   0.99741
   -  3       2.3954 /_  119.9   0.99734     4.160        3-1     4.1505 /_  149.8   0.99772
84 .. 3       2.3832 /_  119.8   0.99228     4.160
83 .. 1       2.4009 /_    0.0   0.99962     4.160        1-2     4.1585 /_   30.0   0.99964
   -  2       2.4012 /_ -120.0   0.99976     4.160        2-3     4.1591 /_  -90.0   0.99978
   -  3       2.4012 /_  120.0   0.99977     4.160        3-1     4.1589 /_  150.0   0.99973
85 .. 3       2.3802 /_  119.8   0.99102     4.160
87 .. 1       2.3587 /_   -1.1   0.98206     4.160        1-2     4.0901 /_   29.0   0.98321
   -  2       2.3677 /_ -121.0    0.9858     4.160        2-3     4.0937 /_  -90.7   0.98405
   -  3       2.3716 /_  119.6   0.98745     4.160        3-1     4.1101 /_  149.1   0.98801
88 .. 1       2.3585 /_   -1.1   0.98197     4.160
89 .. 1       2.3577 /_   -1.1   0.98163     4.160        1-2     4.0897 /_   29.0   0.98311
   -  2        2.367 /_ -121.0   0.98551     4.160        2-3     4.0931 /_  -90.7   0.98391
   -  3       2.3725 /_  119.6   0.98781     4.160        3-1     4.1097 /_  149.1    0.9879
90 .. 2       2.3667 /_ -121.0    0.9854     4.160
91 .. 1       2.3572 /_   -1.1   0.98143     4.160        1-2      4.089 /_   29.0   0.98293
   -  2       2.3662 /_ -121.0   0.98519     4.160        2-3     4.0928 /_  -90.7   0.98385
   -  3       2.3729 /_  119.5     0.988     4.160        3-1     4.1093 /_  149.1    0.9878
92 .. 3       2.3726 /_  119.5   0.98785     4.160
93 .. 1       2.3564 /_   -1.1    0.9811     4.160        1-2     4.0882 /_   29.0   0.98273
   -  2       2.3658 /_ -121.0   0.98502     4.160        2-3     4.0922 /_  -90.7    0.9837
   -  3       2.3732 /_  119.5   0.98809     4.160        3-1     4.1091 /_  149.1   0.98776
94 .. 1       2.3546 /_   -1.1   0.98036     4.160
95 .. 1       2.3563 /_   -1.1   0.98106     4.160        1-2     4.0879 /_   29.0   0.98266
   -  2       2.3648 /_ -121.1   0.98462     4.160        2-3     4.0914 /_  -90.7   0.98351
   -  3       2.3736 /_  119.5   0.98829     4.160        3-1     4.1091 /_  149.1   0.98776
96 .. 2       2.3642 /_ -121.1   0.98435     4.160
98 .. 1       2.3511 /_   -1.3   0.97888     4.160        1-2     4.0784 /_   29.1   0.98039
   -  2       2.3716 /_ -120.8   0.98743     4.160        2-3     4.0902 /_  -90.7   0.98323
   -  3       2.3591 /_  119.6   0.98223     4.160        3-1     4.0971 /_  149.1   0.98487
99 .. 1       2.3517 /_   -1.3   0.97916     4.160        1-2     4.0778 /_   29.1   0.98023
   -  2       2.3696 /_ -120.8   0.98659     4.160        2-3     4.0884 /_  -90.7    0.9828
   -  3       2.3584 /_  119.5   0.98194     4.160        3-1      4.096 /_  149.1    0.9846
100 . 1       2.3522 /_   -1.3   0.97934     4.160        1-2     4.0777 /_   29.1   0.98022
   -  2       2.3694 /_ -120.8   0.98652     4.160        2-3     4.0882 /_  -90.7   0.98273
   -  3       2.3575 /_  119.5   0.98156     4.160        3-1     4.0952 /_  149.1   0.98443
197 . 1       2.3516 /_   -1.3   0.97911     4.160        1-2     4.0795 /_   29.1   0.98064
   -  2       2.3722 /_ -120.7    0.9877     4.160        2-3     4.0912 /_  -90.7   0.98345
   -  3       2.3595 /_  119.6   0.98241     4.160        3-1     4.0979 /_  149.1   0.98507
101 . 1       2.3497 /_   -1.3    0.9783     4.160        1-2     4.0766 /_   29.1   0.97994
   -  2       2.3715 /_ -120.8    0.9874     4.160        2-3     4.0893 /_  -90.7     0.983
   -  3       2.3582 /_  119.6   0.98184     4.160        3-1     4.0957 /_  149.1   0.98454
102 . 3       2.3545 /_  119.5   0.98033     4.160
105 . 1       2.3464 /_   -1.4   0.97696     4.160        1-2     4.0735 /_   29.1   0.97921
   -  2       2.3711 /_ -120.8   0.98723     4.160        2-3     4.0879 /_  -90.7   0.98267
   -  3       2.3588 /_  119.6   0.98213     4.160        3-1     4.0949 /_  149.0   0.98436
103 . 3       2.3503 /_  119.5   0.97858     4.160
104 . 3       2.3458 /_  119.5   0.97669     4.160
106 . 2       2.3682 /_ -120.8   0.98602     4.160
108 . 1       2.3428 /_   -1.5   0.97545     4.160        1-2     4.0705 /_   29.1   0.97849
   -  2       2.3727 /_ -120.8   0.98789     4.160        2-3     4.0878 /_  -90.7   0.98264
   -  3       2.3585 /_  119.6   0.98197     4.160        3-1     4.0938 /_  149.0    0.9841
107 . 2       2.3645 /_ -120.9   0.98449     4.160
109 . 1       2.3328 /_   -1.5   0.97127     4.160
300 . 1       2.3428 /_   -1.5   0.97545     4.160        1-2     4.0705 /_   29.1   0.97849
   -  2       2.3727 /_ -120.8   0.98789     4.160        2-3     4.0878 /_  -90.7   0.98264
   -  3       2.3585 /_  119.6   0.98197     4.160        3-1     4.0938 /_  149.0    0.9841
110 . 1        2.328 /_   -1.6    0.9693     4.160
111 . 1       2.3262 /_   -1.6   0.96851     4.160
112 . 1       2.3265 /_   -1.6   0.96864     4.160
113 . 1       2.3215 /_   -1.6   0.96659     4.160
114 . 1       2.3205 /_   -1.6   0.96615     4.160
135 . 1       2.3936 /_   -0.1   0.99659     4.160        1-2     4.1483 /_   29.9   0.99718
   -  2       2.3958 /_ -120.1   0.99749     4.160        2-3     4.1518 /_  -90.0   0.99804
   -  3       2.4012 /_  120.0   0.99976     4.160        3-1     4.1543 /_  149.9   0.99863
152 . 1        2.359 /_    0.0   0.98219     4.160        1-2     4.1147 /_   30.0   0.98912
   -  2       2.3861 /_ -120.3   0.99347     4.160        2-3     4.1379 /_  -90.0   0.99468
   -  3       2.4029 /_  120.2    1.0005     4.160        3-1     4.1281 /_  149.7   0.99232
160R  1       2.3541 /_   -1.2   0.98014     4.160        1-2     4.0834 /_   29.2   0.98158
   -  2       2.3735 /_ -120.7   0.98823     4.160        2-3     4.0939 /_  -90.6   0.98411
   -  3       2.3613 /_  119.6   0.98315     4.160        3-1     4.1009 /_  149.1   0.98578
150R  1       2.4168 /_    0.0    1.0062     4.160        1-2      4.186 /_   30.0    1.0062
   -  2       2.4168 /_ -120.0    1.0062     4.160        2-3      4.186 /_  -90.0    1.0062
   -  3       2.4168 /_  120.0    1.0062     4.160        3-1      4.186 /_  150.0    1.0062
160 . 1       2.1401 /_   -1.2   0.89104     4.160        1-2     3.7122 /_   29.2   0.89234
   -  2       2.1577 /_ -120.7   0.89839     4.160        2-3     3.7217 /_  -90.6   0.89465
   -  3       2.1466 /_  119.6   0.89377     4.160        3-1     3.7281 /_  149.1   0.89617
